Version 4
SHEET 1 2856 680
WIRE -1664 -224 -1664 -256
WIRE 576 -176 -608 -176
WIRE 896 -16 896 -32
WIRE -1840 0 -1840 -16
WIRE -1664 0 -1664 -16
WIRE -608 0 -608 -176
WIRE -448 0 -480 0
WIRE -336 0 -384 0
WIRE 512 32 496 32
WIRE 496 48 496 32
WIRE 512 48 512 32
WIRE 1568 48 1552 48
WIRE 1904 48 1632 48
WIRE 2080 48 2064 48
WIRE 2416 48 2144 48
WIRE 464 64 368 64
WIRE 576 80 576 -176
WIRE 576 80 528 80
WIRE 800 80 576 80
WIRE 896 80 896 64
WIRE 896 80 864 80
WIRE 992 80 896 80
WIRE 464 96 400 96
WIRE -1840 112 -1840 80
WIRE -1744 112 -1840 112
WIRE -1664 112 -1664 80
WIRE -1568 112 -1664 112
WIRE -112 112 -128 112
WIRE -1744 128 -1744 112
WIRE -1568 128 -1568 112
WIRE -736 128 -784 128
WIRE -608 128 -608 80
WIRE -608 128 -656 128
WIRE -480 128 -480 0
WIRE -480 128 -608 128
WIRE -448 128 -480 128
WIRE -128 128 -128 112
WIRE -112 128 -112 112
WIRE 480 128 480 112
WIRE 496 128 496 112
WIRE 496 128 480 128
WIRE 512 128 512 112
WIRE 512 128 496 128
WIRE 1104 128 1088 128
WIRE -1840 144 -1840 112
WIRE -1664 144 -1664 112
WIRE -336 144 -336 0
WIRE -336 144 -384 144
WIRE -256 144 -336 144
WIRE -160 144 -256 144
WIRE 1088 144 1088 128
WIRE 1104 144 1104 128
WIRE -448 160 -464 160
WIRE 160 160 -96 160
WIRE 368 160 368 64
WIRE 368 160 320 160
WIRE 992 160 992 80
WIRE 1056 160 992 160
WIRE -160 176 -192 176
WIRE 1456 176 1120 176
WIRE 1552 176 1552 48
WIRE 1552 176 1536 176
WIRE 1568 176 1552 176
WIRE 1664 176 1648 176
WIRE 1760 176 1664 176
WIRE 1904 176 1904 48
WIRE 1968 176 1904 176
WIRE 2064 176 2064 48
WIRE 2064 176 2048 176
WIRE 2080 176 2064 176
WIRE 2176 176 2160 176
WIRE 2272 176 2176 176
WIRE -464 192 -464 160
WIRE 1056 192 992 192
WIRE 1904 192 1904 176
WIRE 1904 192 1824 192
WIRE 2416 192 2416 48
WIRE 2416 192 2336 192
WIRE 2480 192 2416 192
WIRE 2608 192 2560 192
WIRE 2720 192 2608 192
WIRE -192 208 -192 176
WIRE -144 208 -144 192
WIRE -128 208 -128 192
WIRE -128 208 -144 208
WIRE -112 208 -112 192
WIRE -112 208 -128 208
WIRE 160 208 128 208
WIRE 400 208 400 96
WIRE 400 208 336 208
WIRE 512 208 496 208
WIRE 1664 208 1664 176
WIRE 1760 208 1728 208
WIRE 2176 208 2176 176
WIRE 2272 208 2240 208
WIRE 496 224 496 208
WIRE 512 224 512 208
WIRE 1072 224 1072 208
WIRE 1088 224 1088 208
WIRE 1088 224 1072 224
WIRE 1104 224 1104 208
WIRE 1104 224 1088 224
WIRE 2608 224 2608 192
WIRE -1840 240 -1840 224
WIRE -1664 240 -1664 224
WIRE 400 240 400 208
WIRE 464 240 400 240
WIRE 800 256 528 256
WIRE 896 256 864 256
WIRE 992 256 992 192
WIRE 992 256 896 256
WIRE 368 272 368 160
WIRE 464 272 368 272
WIRE 896 272 896 256
WIRE 1664 288 1664 272
WIRE 2176 288 2176 272
WIRE 480 304 480 288
WIRE 496 304 496 288
WIRE 496 304 480 304
WIRE 512 304 512 288
WIRE 512 304 496 304
WIRE 1728 320 1728 208
WIRE 1904 320 1904 192
WIRE 1904 320 1728 320
WIRE 2240 320 2240 208
WIRE 2416 320 2416 192
WIRE 2416 320 2240 320
WIRE 2608 336 2608 304
WIRE 896 368 896 352
WIRE -1664 480 -1664 464
WIRE -1664 576 -1664 560
FLAG -128 112 Vcc
FLAG -128 208 Vee
FLAG -1744 128 0
FLAG -1840 -16 Vcc
FLAG -1840 240 Vee
FLAG -416 112 Vcc
FLAG -416 176 Vee
FLAG -464 192 0
FLAG -192 208 0
FLAG 240 256 Vee
FLAG 240 112 Vee
FLAG -1664 -416 Vee
FLAG -1664 -496 clock
IOPIN -1664 -496 Out
FLAG -1664 -256 signal
IOPIN -1664 -256 Out
FLAG -1664 -144 0
FLAG 128 208 clock
IOPIN 128 208 In
FLAG 496 32 Vcc
FLAG 496 128 Vee
FLAG -784 128 signal
IOPIN -784 128 In
FLAG 1088 128 Vcc2
FLAG 1088 224 Vee2
FLAG 896 -32 GND2
FLAG 896 368 GND2
FLAG 1792 224 Vcc2
FLAG 1792 160 Vee2
FLAG 1664 288 GND2
FLAG 2304 224 Vcc2
FLAG 2304 160 Vee2
FLAG 2176 288 GND2
FLAG 2720 192 output
IOPIN 2720 192 Out
FLAG 2608 336 GND2
FLAG -1664 -16 Vcc2
FLAG -1664 240 Vee2
FLAG -1568 128 GND2
FLAG -1664 576 0
FLAG -1664 464 GND2
FLAG 496 208 Vcc
FLAG 496 304 Vee
FLAG -256 144 integrator_1
SYMBOL Comparators\\LT1719 -128 96 R0
SYMATTR InstName U1
SYMBOL voltage -1840 -16 R0
WINDOW 123 0 0 Left 0
WINDOW 39 0 0 Left 0
SYMATTR InstName V1
SYMATTR Value 2.5
SYMBOL voltage -1840 128 R0
WINDOW 123 0 0 Left 0
WINDOW 39 0 0 Left 0
SYMATTR InstName V2
SYMATTR Value 2.5
SYMBOL Digital\\dflop 240 112 R0
SYMATTR InstName A1
SYMBOL cap -384 -16 R90
WINDOW 0 0 32 VBottom 2
WINDOW 3 32 32 VTop 2
SYMATTR InstName C1
SYMATTR Value 33p
SYMBOL voltage -1664 -512 R0
WINDOW 123 0 0 Left 0
WINDOW 39 0 0 Left 0
SYMATTR InstName V3
SYMATTR Value PULSE(0 5 0 1n 1n 0.125u 0.25u 1meg)
SYMBOL voltage -1664 -240 R0
WINDOW 123 0 0 Left 0
WINDOW 39 0 0 Left 0
SYMATTR InstName V4
SYMATTR Value SINE(0 1 8k 0 0 0 1meg)
SYMBOL res -624 -16 R0
SYMATTR InstName R1
SYMATTR Value 50k
SYMBOL res -640 112 R90
WINDOW 0 0 56 VBottom 2
WINDOW 3 32 56 VTop 2
SYMATTR InstName R2
SYMATTR Value 25k
SYMBOL Comparators\\LT1719 496 16 R0
SYMATTR InstName U3
SYMBOL Comparators\\LT1719 1088 112 R0
SYMATTR InstName U4
SYMBOL cap 864 64 R90
WINDOW 0 0 32 VBottom 2
WINDOW 3 32 32 VTop 2
SYMATTR InstName C2
SYMATTR Value 1n
SYMBOL cap 864 240 R90
WINDOW 0 0 32 VBottom 2
WINDOW 3 32 32 VTop 2
SYMATTR InstName C3
SYMATTR Value 1n
SYMBOL res 880 -32 R0
SYMATTR InstName R5
SYMATTR Value 100k
SYMBOL res 880 256 R0
SYMATTR InstName R6
SYMATTR Value 100k
SYMBOL OpAmps\\AD8542 1792 256 M180
SYMATTR InstName U5
SYMBOL res 1552 160 R90
WINDOW 0 0 56 VBottom 2
WINDOW 3 32 56 VTop 2
SYMATTR InstName R3
SYMATTR Value 7.92k
SYMBOL res 1664 160 R90
WINDOW 0 0 56 VBottom 2
WINDOW 3 32 56 VTop 2
SYMATTR InstName R4
SYMATTR Value 20.92k
SYMBOL cap 1648 208 R0
SYMATTR InstName C4
SYMATTR Value 680p
SYMBOL cap 1632 32 R90
WINDOW 0 0 32 VBottom 2
WINDOW 3 32 32 VTop 2
SYMATTR InstName C5
SYMATTR Value 1n
SYMBOL OpAmps\\AD8542 2304 256 M180
SYMATTR InstName U6
SYMBOL res 2064 160 R90
WINDOW 0 0 56 VBottom 2
WINDOW 3 32 56 VTop 2
SYMATTR InstName R7
SYMATTR Value 5.37k
SYMBOL res 2176 160 R90
WINDOW 0 0 56 VBottom 2
WINDOW 3 32 56 VTop 2
SYMATTR InstName R8
SYMATTR Value 19.23k
SYMBOL cap 2160 208 R0
SYMATTR InstName C6
SYMATTR Value 330p
SYMBOL cap 2144 32 R90
WINDOW 0 0 32 VBottom 2
WINDOW 3 32 32 VTop 2
SYMATTR InstName C7
SYMATTR Value 3.3n
SYMBOL res 2576 176 R90
WINDOW 0 0 56 VBottom 2
WINDOW 3 32 56 VTop 2
SYMATTR InstName R9
SYMATTR Value 10k
SYMBOL res 2592 208 R0
SYMATTR InstName R10
SYMATTR Value 10k
SYMBOL voltage -1664 -16 R0
WINDOW 123 0 0 Left 0
WINDOW 39 0 0 Left 0
SYMATTR InstName V5
SYMATTR Value 2.5
SYMBOL voltage -1664 128 R0
WINDOW 123 0 0 Left 0
WINDOW 39 0 0 Left 0
SYMATTR InstName V6
SYMATTR Value 2.5
SYMBOL Comparators\\LT1719 496 192 R0
SYMATTR InstName U2
SYMBOL voltage -1664 464 R0
WINDOW 123 0 0 Left 0
WINDOW 39 0 0 Left 0
SYMATTR InstName V7
SYMATTR Value SINE(0 1 25k 0 0 0 1meg)
SYMBOL OpAmps\\OP284 -416 80 R0
SYMATTR InstName U7
TEXT -1704 344 Left 2 !.tran 1m
TEXT 1632 400 Left 2 ;15kHz cutoff\nhttps://www.beis.de/Elektronik/Filter/ActiveLPFilter.html
TEXT -1816 640 Left 2 ;Common mode source on capacitive barrier
