Version 4
SHEET 1 1736 1588
WIRE -1136 -80 -1248 -80
WIRE -1552 -16 -1584 -16
WIRE -1248 -16 -1248 -80
WIRE -1584 16 -1584 -16
WIRE -96 48 -208 48
WIRE 80 48 -16 48
WIRE 256 48 80 48
WIRE 368 48 320 48
WIRE 480 48 368 48
WIRE 576 48 480 48
WIRE -960 64 -960 16
WIRE 80 96 80 48
WIRE -1584 112 -1584 96
WIRE -1504 112 -1584 112
WIRE -1456 112 -1504 112
WIRE -1248 112 -1248 64
WIRE -1136 112 -1248 112
WIRE 368 112 368 48
WIRE 480 112 480 48
WIRE -1584 128 -1584 112
WIRE -1136 128 -1136 112
WIRE -1504 144 -1504 112
WIRE -1248 144 -1248 112
WIRE 16 144 -16 144
WIRE 16 176 16 144
WIRE 32 176 16 176
WIRE -960 192 -960 144
WIRE -1584 224 -1584 208
WIRE -1504 224 -1504 208
WIRE -1504 224 -1584 224
WIRE -1584 240 -1584 224
WIRE 80 240 80 192
WIRE 368 240 368 176
WIRE 368 240 80 240
WIRE 480 240 480 192
WIRE 480 240 368 240
WIRE -1248 272 -1248 224
WIRE -1136 272 -1248 272
WIRE 80 288 80 240
WIRE -960 320 -960 288
WIRE -960 432 -960 400
WIRE -944 704 -976 704
WIRE 208 736 160 736
WIRE 320 736 272 736
WIRE -240 752 -288 752
WIRE -112 752 -160 752
WIRE -944 784 -944 704
WIRE 976 784 944 784
WIRE 1088 784 1056 784
WIRE 1088 832 1088 784
WIRE 1136 832 1088 832
WIRE 1296 832 1216 832
WIRE 1024 864 1024 672
WIRE -800 880 -800 704
WIRE 1088 880 1088 832
WIRE 1088 880 1056 880
WIRE -800 896 -800 880
WIRE -112 896 -112 752
WIRE -112 896 -160 896
WIRE -64 896 -112 896
WIRE 32 896 -64 896
WIRE 160 896 160 736
WIRE 160 896 112 896
WIRE 320 896 320 736
WIRE 320 896 272 896
WIRE 336 896 320 896
WIRE 480 896 416 896
WIRE 544 896 480 896
WIRE 944 896 944 784
WIRE 944 896 848 896
WIRE 992 896 944 896
WIRE -672 912 -768 912
WIRE -288 912 -288 752
WIRE -288 912 -368 912
WIRE -224 912 -288 912
WIRE 160 912 160 896
WIRE 208 912 160 912
WIRE 1088 912 1056 912
WIRE -944 928 -944 864
WIRE -944 928 -1024 928
WIRE -848 928 -944 928
WIRE -832 928 -848 928
WIRE -128 928 -160 928
WIRE 336 928 272 928
WIRE -656 944 -768 944
WIRE -560 944 -608 944
WIRE 1088 944 1088 912
WIRE 1136 944 1088 944
WIRE 1296 944 1216 944
WIRE -128 960 -128 928
WIRE -800 976 -800 960
WIRE 336 976 336 928
WIRE 1088 976 1088 944
WIRE -800 1008 -800 976
WIRE -784 1008 -784 976
WIRE -784 1008 -800 1008
WIRE -656 1024 -656 944
WIRE -800 1072 -800 1008
WIRE 1088 1072 1088 1056
WIRE 1024 1104 1024 928
WIRE -656 1136 -656 1104
WIRE 192 1232 160 1232
WIRE 320 1232 272 1232
WIRE 320 1392 320 1232
WIRE 320 1392 272 1392
WIRE 352 1392 320 1392
WIRE 480 1392 480 896
WIRE 480 1392 432 1392
WIRE -64 1408 -64 896
WIRE 32 1408 -64 1408
WIRE 160 1408 160 1232
WIRE 160 1408 112 1408
WIRE 208 1408 160 1408
WIRE 320 1424 272 1424
WIRE 320 1456 320 1424
FLAG 80 288 0
FLAG 1024 672 12V
IOPIN 1024 672 BiDir
FLAG 1024 1104 -12V
IOPIN 1024 1104 BiDir
FLAG -16 144 ctrl_sw
IOPIN -16 144 In
FLAG 576 48 feedback
IOPIN 576 48 Out
FLAG 1296 832 feedback
IOPIN 1296 832 In
FLAG -960 432 0
FLAG -208 48 12V
IOPIN -208 48 BiDir
FLAG -1136 128 0
FLAG -1136 -80 12V
IOPIN -1136 -80 BiDir
FLAG -1136 272 -12V
IOPIN -1136 272 BiDir
FLAG 1088 1072 0
FLAG 336 976 0
FLAG -960 192 0
FLAG -1024 928 ctrl_sw
IOPIN -1024 928 Out
FLAG -1584 240 0
FLAG -1552 -16 12V
IOPIN -1552 -16 BiDir
FLAG -1456 112 5V
IOPIN -1456 112 BiDir
FLAG -976 704 5V
IOPIN -976 704 BiDir
FLAG -128 960 0
FLAG -560 944 ctrl
IOPIN -560 944 In
FLAG -960 16 SW
IOPIN -960 16 Out
FLAG 848 896 error
IOPIN 848 896 Out
FLAG 544 896 error
IOPIN 544 896 In
FLAG -368 912 ctrl
IOPIN -368 912 Out
FLAG -672 912 SW
IOPIN -672 912 In
FLAG -800 1072 -12V
IOPIN -800 1072 BiDir
FLAG -800 704 12V
IOPIN -800 704 BiDir
FLAG 240 880 12V
IOPIN 240 880 BiDir
FLAG 240 944 -12V
IOPIN 240 944 BiDir
FLAG -192 880 12V
IOPIN -192 880 BiDir
FLAG -192 944 -12V
IOPIN -192 944 BiDir
FLAG 240 1440 -12V
IOPIN 240 1440 BiDir
FLAG 240 1376 12V
IOPIN 240 1376 BiDir
FLAG 320 1456 0
FLAG -960 288 Vref
IOPIN -960 288 Out
FLAG 1296 944 Vref
IOPIN 1296 944 In
FLAG -656 1136 0
SYMBOL ind -112 64 R270
WINDOW 0 32 56 VTop 2
WINDOW 3 4 56 VBottom 2
SYMATTR InstName L1
SYMATTR Value 600”
SYMBOL cap 352 112 R0
SYMATTR InstName C1
SYMATTR Value 50”
SYMBOL res 464 96 R0
SYMATTR InstName R1
SYMATTR Value 100
SYMBOL schottky 256 64 R270
WINDOW 0 32 32 VTop 2
WINDOW 3 0 32 VBottom 2
SYMATTR InstName D1
SYMATTR Value 1N5819
SYMATTR Description Diode
SYMATTR Type diode
SYMBOL OpAmps\\OP07 1024 832 M0
SYMATTR InstName U1
SYMBOL voltage -960 304 R0
WINDOW 123 0 0 Left 0
WINDOW 39 0 0 Left 0
SYMATTR InstName V2
SYMATTR Value PULSE(23 15 50m 10n 10n 10 10 1)
SYMBOL voltage -1248 -32 R0
WINDOW 123 0 0 Left 0
WINDOW 39 0 0 Left 0
SYMATTR InstName V1
SYMATTR Value 12
SYMBOL voltage -1248 128 R0
WINDOW 123 0 0 Left 0
WINDOW 39 0 0 Left 0
SYMATTR InstName V3
SYMATTR Value 12
SYMBOL res 1232 816 R90
WINDOW 0 0 56 VBottom 2
WINDOW 3 32 56 VTop 2
SYMATTR InstName R2
SYMATTR Value 10k
SYMBOL res 1232 928 R90
WINDOW 0 0 56 VBottom 2
WINDOW 3 32 56 VTop 2
SYMATTR InstName R3
SYMATTR Value 10k
SYMBOL res 1072 768 R90
WINDOW 0 0 56 VBottom 2
WINDOW 3 32 56 VTop 2
SYMATTR InstName R4
SYMATTR Value 10k
SYMBOL res 1104 1072 R180
WINDOW 0 36 76 Left 2
WINDOW 3 36 40 Left 2
SYMATTR InstName R5
SYMATTR Value 10k
SYMBOL OpAmps\\OP07 240 848 M0
SYMATTR InstName U2
SYMBOL res 432 880 R90
WINDOW 0 0 56 VBottom 2
WINDOW 3 32 56 VTop 2
SYMATTR InstName R6
SYMATTR Value 10k
SYMBOL cap 208 752 R270
WINDOW 0 32 32 VTop 2
WINDOW 3 0 32 VBottom 2
SYMATTR InstName C2
SYMATTR Value 1”
SYMBOL voltage -960 48 R0
WINDOW 123 0 0 Left 0
WINDOW 39 0 0 Left 0
SYMATTR InstName V4
SYMATTR Value PULSE(-14 14 0 100u 10n 10n 100u 100k)
SYMBOL res -960 768 R0
SYMATTR InstName R7
SYMATTR Value 2k
SYMBOL Comparators\\LT1011 -800 928 M0
SYMATTR InstName U3
SYMBOL nmos 32 96 R0
SYMATTR InstName M1
SYMATTR Value BSC050NE2LS
SYMBOL res -1600 0 R0
SYMATTR InstName R8
SYMATTR Value 700
SYMBOL res -1600 112 R0
SYMATTR InstName R9
SYMATTR Value 500
SYMBOL cap -1520 144 R0
SYMATTR InstName C3
SYMATTR Value 3.3”
SYMBOL OpAmps\\OP07 -192 848 M0
SYMATTR InstName U4
SYMBOL res -144 736 R90
WINDOW 0 0 56 VBottom 2
WINDOW 3 32 56 VTop 2
SYMATTR InstName R10
SYMATTR Value 10k
SYMBOL res 128 880 R90
WINDOW 0 0 56 VBottom 2
WINDOW 3 32 56 VTop 2
SYMATTR InstName R11
SYMATTR Value 10k
SYMBOL res 128 1392 R90
WINDOW 0 0 56 VBottom 2
WINDOW 3 32 56 VTop 2
SYMATTR InstName R12
SYMATTR Value 10k
SYMBOL OpAmps\\OP07 240 1344 M0
SYMATTR InstName U5
SYMBOL res 288 1216 R90
WINDOW 0 0 56 VBottom 2
WINDOW 3 32 56 VTop 2
SYMATTR InstName R13
SYMATTR Value 1k
SYMBOL res 448 1376 R90
WINDOW 0 0 56 VBottom 2
WINDOW 3 32 56 VTop 2
SYMATTR InstName R14
SYMATTR Value 10k
SYMBOL voltage -656 1008 R0
WINDOW 123 0 0 Left 0
WINDOW 39 0 0 Left 0
SYMATTR InstName V5
SYMATTR Value PULSE(5 -10 50m 10n 10n 10 10 1)
TEXT -152 -112 Left 2 !.tran 100m startup
