Version 4
SHEET 1 2052 1300
WIRE 512 -256 400 -256
WIRE 512 -176 512 -256
WIRE -96 -96 -160 -96
WIRE 512 -80 512 -96
WIRE -160 -48 -160 -96
WIRE 480 -32 432 -32
WIRE 608 -32 576 -32
WIRE 752 -32 688 -32
WIRE 816 -32 752 -32
WIRE 1024 -32 896 -32
WIRE 432 16 432 -32
WIRE -160 64 -160 32
WIRE -80 64 -160 64
WIRE -160 96 -160 64
WIRE 752 144 752 -32
WIRE 816 144 752 144
WIRE 1024 160 1024 -32
WIRE 1024 160 880 160
WIRE 1088 160 1024 160
WIRE 816 176 752 176
WIRE -160 208 -160 176
WIRE -96 208 -160 208
WIRE 240 352 160 352
WIRE 640 352 320 352
WIRE 752 352 752 176
WIRE 752 352 640 352
WIRE 800 352 752 352
WIRE 928 352 880 352
WIRE 1024 352 1024 160
WIRE 1024 352 992 352
WIRE 160 400 160 352
WIRE 640 400 640 352
WIRE 752 416 752 352
WIRE 160 512 160 480
WIRE 640 512 640 480
WIRE 752 512 752 480
WIRE 752 512 640 512
WIRE 640 544 640 512
WIRE 688 768 640 768
WIRE 896 768 688 768
WIRE 1040 768 896 768
WIRE -272 816 -304 816
WIRE -176 816 -208 816
WIRE 224 816 -176 816
WIRE 688 816 688 768
WIRE 896 816 896 768
WIRE -176 864 -176 816
WIRE 224 864 224 816
WIRE 416 864 368 864
WIRE 1040 880 1040 768
WIRE 688 928 688 896
WIRE 752 928 688 928
WIRE 896 928 896 896
WIRE 896 928 832 928
WIRE 976 928 896 928
WIRE 224 976 224 944
WIRE 368 976 368 864
WIRE 368 976 224 976
WIRE 624 976 368 976
WIRE 1184 976 1040 976
WIRE -176 1008 -176 944
WIRE 224 1008 224 976
WIRE 896 1104 896 928
WIRE 1040 1104 1040 976
WIRE 224 1152 224 1088
WIRE 688 1216 688 1024
WIRE 688 1216 640 1216
WIRE 896 1216 896 1168
WIRE 896 1216 688 1216
WIRE 1040 1216 1040 1184
WIRE 1040 1216 896 1216
FLAG -80 64 0
FLAG -96 208 Vee
IOPIN -96 208 BiDir
FLAG -96 -96 Vcc
IOPIN -96 -96 BiDir
FLAG 848 128 Vcc
IOPIN 848 128 BiDir
FLAG 848 192 Vee
IOPIN 848 192 BiDir
FLAG 640 544 0
FLAG 432 16 0
FLAG 400 -256 ctrl
IOPIN 400 -256 In
FLAG 640 768 Vcc
IOPIN 640 768 BiDir
FLAG 640 1216 Vee
IOPIN 640 1216 BiDir
FLAG -176 1008 0
FLAG 1184 976 ctrl
IOPIN 1184 976 In
FLAG 160 512 0
FLAG 1088 160 out
IOPIN 1088 160 Out
FLAG -304 816 out
IOPIN -304 816 In
FLAG 416 864 feedback
IOPIN 416 864 Out
FLAG 224 1152 0
SYMBOL voltage -160 -64 R0
WINDOW 123 0 0 Left 0
WINDOW 39 0 0 Left 0
SYMATTR InstName V1
SYMATTR Value 15
SYMBOL voltage -160 80 R0
WINDOW 123 0 0 Left 0
WINDOW 39 0 0 Left 0
SYMATTR InstName V2
SYMATTR Value 15
SYMBOL res 896 336 R90
WINDOW 0 0 56 VBottom 2
WINDOW 3 32 56 VTop 2
SYMATTR InstName R1
SYMATTR Value 1k
SYMBOL cap 992 336 R90
WINDOW 0 0 32 VBottom 2
WINDOW 3 32 32 VTop 2
SYMATTR InstName C1
SYMATTR Value 10n
SYMBOL cap 736 416 R0
SYMATTR InstName C2
SYMATTR Value 10n
SYMBOL res 624 384 R0
SYMATTR InstName R2
SYMATTR Value 1k
SYMBOL res 912 -48 R90
WINDOW 0 0 56 VBottom 2
WINDOW 3 32 56 VTop 2
SYMATTR InstName R3
SYMATTR Value 10k
SYMBOL res 704 -48 R90
WINDOW 0 0 56 VBottom 2
WINDOW 3 32 56 VTop 2
SYMATTR InstName R4
SYMATTR Value 2k
SYMBOL njf 576 -80 R90
SYMATTR InstName J1
SYMBOL cap 880 1104 R0
SYMATTR InstName C3
SYMATTR Value 1”
SYMBOL res 880 800 R0
SYMATTR InstName R8
SYMATTR Value 100k
SYMBOL schottky -208 800 R90
WINDOW 0 0 32 VBottom 2
WINDOW 3 32 32 VTop 2
SYMATTR InstName D1
SYMATTR Value 1N5817
SYMATTR Description Diode
SYMATTR Type diode
SYMBOL res 208 848 R0
SYMATTR InstName R10
SYMATTR Value 1k
SYMBOL res 208 992 R0
SYMATTR InstName R11
SYMATTR Value 1k
SYMBOL res 336 336 R90
WINDOW 0 0 56 VBottom 2
WINDOW 3 32 56 VTop 2
SYMATTR InstName R12
SYMATTR Value 1000k
SYMBOL voltage 160 384 R0
WINDOW 123 0 0 Left 0
WINDOW 39 0 0 Left 0
SYMATTR InstName V3
SYMATTR Value PULSE(0 15 0 1m 1m 5m 5m 1)
SYMBOL OpAmps\\LT1007 848 96 R0
SYMATTR InstName U1
SYMBOL res 1024 1088 R0
SYMATTR InstName R9
SYMATTR Value 1k
SYMBOL res 496 -192 R0
SYMATTR InstName R5
SYMATTR Value 1k
SYMBOL pnp 624 1024 M180
WINDOW 0 76 25 Left 2
WINDOW 3 70 60 Left 2
SYMATTR InstName Q1
SYMATTR Value 2N3906
SYMBOL res 672 800 R0
SYMATTR InstName R7
SYMATTR Value 1k
SYMBOL npn 976 880 R0
SYMATTR InstName Q2
SYMATTR Value 2N3904
SYMBOL res -192 848 R0
SYMATTR InstName R13
SYMATTR Value 1k
SYMBOL res 848 912 R90
WINDOW 0 0 56 VBottom 2
WINDOW 3 32 56 VTop 2
SYMATTR InstName R6
SYMATTR Value 2k
TEXT -192 536 Left 2 !.tran 100m
TEXT 168 264 Left 2 ;disturbance for oscillator
TEXT 400 56 Left 2 ;jfet automatic gain control
TEXT -96 960 Left 2 ;adjust potentiometer to\nchange steady state RMS
TEXT -512 912 Left 2 ;load the diode incase of\n large potentiometer values
TEXT 680 1256 Left 2 ;low pass filter\nwith buffered input and output
TEXT 848 448 Left 2 ;oscillator section
TEXT 800 -96 Left 2 ;feedback gain
