Version 4
SHEET 1 1924 2244
WIRE 192 -16 -64 -16
WIRE 432 -16 192 -16
WIRE 656 -16 432 -16
WIRE 192 32 192 -16
WIRE 432 32 432 -16
WIRE 656 32 656 -16
WIRE -64 80 -64 -16
WIRE 192 160 192 112
WIRE 1072 160 192 160
WIRE 1216 160 1152 160
WIRE 1552 160 1216 160
WIRE 1696 160 1632 160
WIRE -64 224 -64 160
WIRE -64 224 -160 224
WIRE 432 240 432 112
WIRE 1072 240 432 240
WIRE 1296 240 1152 240
WIRE 1552 240 1296 240
WIRE 1776 240 1632 240
WIRE -160 256 -160 224
WIRE -64 272 -64 224
WIRE 656 320 656 112
WIRE 1072 320 656 320
WIRE 1376 320 1152 320
WIRE 1552 320 1376 320
WIRE 1856 320 1632 320
WIRE 192 352 192 160
WIRE 432 352 432 240
WIRE 656 352 656 320
WIRE 1216 352 1216 160
WIRE 1296 352 1296 240
WIRE 1376 352 1376 320
WIRE 1696 352 1696 160
WIRE 1776 352 1776 240
WIRE 1856 352 1856 320
WIRE 1216 464 1216 416
WIRE 1296 464 1296 416
WIRE 1296 464 1216 464
WIRE 1376 464 1376 416
WIRE 1376 464 1296 464
WIRE 1696 464 1696 432
WIRE 1776 464 1776 432
WIRE 1776 464 1696 464
WIRE 1856 464 1856 432
WIRE 1856 464 1776 464
WIRE -64 512 -64 352
WIRE 192 512 192 432
WIRE 192 512 -64 512
WIRE 432 512 432 432
WIRE 432 512 192 512
WIRE 656 512 656 432
WIRE 656 512 432 512
WIRE -1296 672 -1344 672
WIRE -1344 736 -1344 672
WIRE -1344 848 -1344 816
WIRE -1216 848 -1344 848
WIRE -1216 880 -1216 848
WIRE -1344 896 -1344 848
WIRE -1344 1040 -1344 976
WIRE -1312 1040 -1344 1040
WIRE 176 1168 176 1152
WIRE 144 1200 96 1200
WIRE 272 1200 224 1200
WIRE 144 1232 -448 1232
WIRE 272 1232 224 1232
WIRE -448 1264 -448 1232
WIRE 160 1280 160 1264
WIRE 176 1280 176 1264
WIRE 176 1280 160 1280
WIRE 192 1280 192 1264
WIRE 192 1280 176 1280
WIRE 160 1296 160 1280
WIRE -448 1376 -448 1344
WIRE 176 1504 176 1488
WIRE 96 1536 96 1200
WIRE 144 1536 96 1536
WIRE 272 1536 224 1536
WIRE 144 1568 -448 1568
WIRE 272 1568 224 1568
WIRE -448 1584 -448 1568
WIRE 160 1616 160 1600
WIRE 176 1616 176 1600
WIRE 176 1616 160 1616
WIRE 192 1616 192 1600
WIRE 192 1616 176 1616
WIRE 160 1632 160 1616
WIRE -448 1696 -448 1664
WIRE 176 1856 176 1840
WIRE 96 1888 96 1536
WIRE 144 1888 96 1888
WIRE 272 1888 224 1888
WIRE 144 1920 -448 1920
WIRE 272 1920 224 1920
WIRE -448 1936 -448 1920
WIRE 160 1968 160 1952
WIRE 176 1968 176 1952
WIRE 176 1968 160 1968
WIRE 192 1968 192 1952
WIRE 192 1968 176 1968
WIRE 160 1984 160 1968
WIRE -448 2048 -448 2016
WIRE 96 2096 96 1888
WIRE 96 2208 96 2176
FLAG 144 96 va1
IOPIN 144 96 In
FLAG 144 416 va2
IOPIN 144 416 In
FLAG 384 96 vb1
IOPIN 384 96 In
FLAG 384 416 vb2
IOPIN 384 416 In
FLAG 608 96 vc1
IOPIN 608 96 In
FLAG 608 416 vc2
IOPIN 608 416 In
FLAG -448 1376 0
FLAG -448 1696 0
FLAG -448 2048 0
FLAG 96 2208 0
FLAG -1216 880 0
FLAG -1296 672 Vcc
IOPIN -1296 672 BiDir
FLAG -1312 1040 Vee
IOPIN -1312 1040 BiDir
FLAG 272 1200 va1
IOPIN 272 1200 In
FLAG 272 1232 va2
IOPIN 272 1232 In
FLAG 272 1536 vb1
IOPIN 272 1536 In
FLAG 272 1568 vb2
IOPIN 272 1568 In
FLAG 272 1888 vc1
IOPIN 272 1888 In
FLAG 272 1920 vc2
IOPIN 272 1920 In
FLAG 144 48 0
FLAG 384 48 0
FLAG 608 48 0
FLAG 608 368 0
FLAG 384 368 0
FLAG 144 368 0
FLAG 176 1152 Vcc
IOPIN 176 1152 BiDir
FLAG 160 1296 Vee
IOPIN 160 1296 BiDir
FLAG 176 1488 Vcc
IOPIN 176 1488 BiDir
FLAG 160 1632 Vee
IOPIN 160 1632 BiDir
FLAG 176 1840 Vcc
IOPIN 176 1840 BiDir
FLAG 160 1984 Vee
IOPIN 160 1984 BiDir
FLAG -160 256 0
FLAG 1296 464 0
FLAG 1776 464 0
SYMBOL voltage -64 64 R0
WINDOW 123 0 0 Left 0
WINDOW 39 0 0 Left 0
SYMATTR InstName V1
SYMATTR Value 500
SYMBOL ind 1056 176 R270
WINDOW 0 32 56 VTop 2
WINDOW 3 5 56 VBottom 2
SYMATTR InstName L1
SYMATTR Value 15m
SYMBOL ind 1056 256 R270
WINDOW 0 32 56 VTop 2
WINDOW 3 5 56 VBottom 2
SYMATTR InstName L2
SYMATTR Value 15m
SYMBOL ind 1056 336 R270
WINDOW 0 32 56 VTop 2
WINDOW 3 5 56 VBottom 2
SYMATTR InstName L3
SYMATTR Value 15m
SYMBOL cap 1200 352 R0
SYMATTR InstName C1
SYMATTR Value 100µ
SYMBOL cap 1280 352 R0
SYMATTR InstName C2
SYMATTR Value 100µ
SYMBOL cap 1360 352 R0
SYMATTR InstName C3
SYMATTR Value 100µ
SYMBOL ind 1536 176 R270
WINDOW 0 32 56 VTop 2
WINDOW 3 5 56 VBottom 2
SYMATTR InstName L4
SYMATTR Value 1.5m
SYMBOL ind 1536 256 R270
WINDOW 0 32 56 VTop 2
WINDOW 3 5 56 VBottom 2
SYMATTR InstName L5
SYMATTR Value 1.5m
SYMBOL ind 1536 336 R270
WINDOW 0 32 56 VTop 2
WINDOW 3 5 56 VBottom 2
SYMATTR InstName L6
SYMATTR Value 1.5m
SYMBOL res 1680 336 R0
SYMATTR InstName R1
SYMATTR Value 100
SYMBOL res 1760 336 R0
SYMATTR InstName R2
SYMATTR Value 100
SYMBOL res 1840 336 R0
SYMATTR InstName R3
SYMATTR Value 100
SYMBOL voltage 96 2080 R0
WINDOW 123 0 0 Left 0
WINDOW 39 0 0 Left 0
SYMATTR InstName V2
SYMATTR Value PULSE(-1 1 0 50u 50u 0 100u 100k)
SYMBOL voltage -448 1248 R0
WINDOW 123 0 0 Left 0
WINDOW 39 0 0 Left 0
SYMATTR InstName V3
SYMATTR Value SINE(0 0.92 50 0 0 0 100k)
SYMBOL voltage -448 1568 R0
WINDOW 123 0 0 Left 0
WINDOW 39 0 0 Left 0
SYMATTR InstName V4
SYMATTR Value SINE(0 0.92 50 0 0 120 100k)
SYMBOL voltage -448 1920 R0
WINDOW 123 0 0 Left 0
WINDOW 39 0 0 Left 0
SYMATTR InstName V5
SYMATTR Value SINE(0 0.92 50 0 0 240 100k)
SYMBOL voltage -1344 720 R0
WINDOW 123 0 0 Left 0
WINDOW 39 0 0 Left 0
SYMATTR InstName V6
SYMATTR Value 5
SYMBOL voltage -1344 880 R0
WINDOW 123 0 0 Left 0
WINDOW 39 0 0 Left 0
SYMATTR InstName V7
SYMATTR Value 5
SYMBOL sw 192 16 R0
SYMATTR InstName S1
SYMATTR Value INVSW
SYMBOL sw 192 336 R0
SYMATTR InstName S2
SYMATTR Value INVSW
SYMBOL sw 432 16 R0
SYMATTR InstName S3
SYMATTR Value INVSW
SYMBOL sw 432 336 R0
SYMATTR InstName S4
SYMATTR Value INVSW
SYMBOL sw 656 16 R0
SYMATTR InstName S5
SYMATTR Value INVSW
SYMBOL sw 656 336 R0
SYMATTR InstName S6
SYMATTR Value INVSW
SYMBOL Comparators\\LT1711 176 1216 R0
SYMATTR InstName U4
SYMBOL Comparators\\LT1711 176 1552 R0
SYMATTR InstName U1
SYMBOL Comparators\\LT1711 176 1904 R0
SYMATTR InstName U2
SYMBOL voltage -64 256 R0
WINDOW 123 0 0 Left 0
WINDOW 39 0 0 Left 0
SYMATTR InstName V8
SYMATTR Value 500
TEXT -1322 336 Left 2 !.tran 100m uic
TEXT 48 -104 Left 2 !.model INVSW SW(Ron=1u Roff=1meg Vt=0.5 Vh=-0.4)
